@<TRIPOS>MOLECULE
LNR
   23    23     1     0     0
SMALL
No Charge or Current Charge


@<TRIPOS>ATOM
      1 O1          -0.4610     1.0520     4.7320 oh         1 LNR       -0.723241
      2 C1          -0.6230     0.6940     3.4580 ca         1 LNR        0.519870
      3 C2          -1.6830     1.2090     2.7190 ca         1 LNR       -0.261753
      4 C3           0.2860    -0.2380     2.8490 ca         1 LNR        0.450062
      5 O2           1.2610    -0.6660     3.6630 oh         1 LNR       -0.773383
      6 C4           0.1170    -0.6250     1.5130 ca         1 LNR       -0.259613
      7 C5          -0.9340    -0.0900     0.7900 ca         1 LNR       -0.144940
      8 C6          -1.8600     0.8130     1.3910 ca         1 LNR        0.045371
      9 C7          -2.9960     1.3330     0.5890 c3         1 LNR        0.139614
     10 O3          -3.9550     1.8870     1.4370 oh         1 LNR       -0.781810
     11 C8          -2.5060     2.5450    -0.4420 c3         1 LNR       -0.107007
     12 N1          -1.7110     2.2080    -1.5460 n3         1 LNR       -0.914387
     13 H1           0.3040     0.5910     5.1230 ho         1 LNR        0.530353
     14 H2          -2.3830     1.8820     3.1990 ha         1 LNR        0.326766
     15 H3           1.8500    -1.3110     3.2350 ho         1 LNR        0.520060
     16 H4           0.8080    -1.3280     1.0570 ha         1 LNR        0.281276
     17 H5          -1.0620    -0.3730    -0.2510 ha         1 LNR        0.292094
     18 H6          -3.4040     0.5520    -0.0690 h1         1 LNR        0.199409
     19 H7          -4.7700     2.0690     0.9420 ho         1 LNR        0.485350
     20 H8          -2.0100     3.2760     0.2000 h1         1 LNR        0.208521
     21 H9          -3.4600     2.9590    -0.7870 h1         1 LNR        0.202246
     22 H10         -0.7150     2.0750    -1.4390 hn         1 LNR        0.375788
     23 H11         -2.1240     1.7710    -2.3580 hn         1 LNR        0.389352
@<TRIPOS>BOND
     1     1     2 1   
     2     1    13 1   
     3     2     3 ar  
     4     2     4 ar  
     5     3     8 ar  
     6     3    14 1   
     7     4     5 1   
     8     4     6 ar  
     9     5    15 1   
    10     6     7 ar  
    11     6    16 1   
    12     7     8 ar  
    13     7    17 1   
    14     8     9 1   
    15     9    10 1   
    16     9    11 1   
    17     9    18 1   
    18    10    19 1   
    19    11    12 1   
    20    11    20 1   
    21    11    21 1   
    22    12    22 1   
    23    12    23 1   
@<TRIPOS>SUBSTRUCTURE
     1 LNR         1 TEMP              0 ****  ****    0 ROOT
